C9H12
APtclcactv12182410013D 0   0.00000     0.00000
 
 21 21  0  0  0  0  0  0  0  0999 V2000
    3.7468    0.0001    0.2241 C   0  0  0  0  0  0  0  0  0  0  0  0
    2.2592    0.0008    0.5820 C   0  0  0  0  0  0  0  0  0  0  0  0
    1.4259   -0.0013   -0.7011 C   0  0  0  0  0  0  0  0  0  0  0  0
   -0.0393   -0.0006   -0.3485 C   0  0  0  0  0  0  0  0  0  0  0  0
   -0.7112    1.1969   -0.1888 C   0  0  0  0  0  0  0  0  0  0  0  0
   -2.0552    1.1975    0.1347 C   0  0  0  0  0  0  0  0  0  0  0  0
   -2.7273    0.0007    0.2980 C   0  0  0  0  0  0  0  0  0  0  0  0
   -2.0556   -1.1968    0.1374 C   0  0  0  0  0  0  0  0  0  0  0  0
   -0.7127   -1.1974   -0.1903 C   0  0  0  0  0  0  0  0  0  0  0  0
    3.9798    0.8891   -0.3620 H   0  0  0  0  0  0  0  0  0  0  0  0
    4.3405    0.0017    1.1382 H   0  0  0  0  0  0  0  0  0  0  0  0
    3.9797   -0.8908   -0.3590 H   0  0  0  0  0  0  0  0  0  0  0  0
    2.0262   -0.8881    1.1681 H   0  0  0  0  0  0  0  0  0  0  0  0
    2.0263    0.8918    1.1651 H   0  0  0  0  0  0  0  0  0  0  0  0
    1.6590    0.8877   -1.2872 H   0  0  0  0  0  0  0  0  0  0  0  0
    1.6589   -0.8922   -1.2842 H   0  0  0  0  0  0  0  0  0  0  0  0
   -0.1861    2.1319   -0.3164 H   0  0  0  0  0  0  0  0  0  0  0  0
   -2.5800    2.1331    0.2602 H   0  0  0  0  0  0  0  0  0  0  0  0
   -3.7772    0.0012    0.5515 H   0  0  0  0  0  0  0  0  0  0  0  0
   -2.5807   -2.1319    0.2654 H   0  0  0  0  0  0  0  0  0  0  0  0
   -0.1879   -2.1330   -0.3158 H   0  0  0  0  0  0  0  0  0  0  0  0
  1  2  1  0  0  0  0
  2  3  1  0  0  0  0
  3  4  1  0  0  0  0
  4  5  1  0  0  0  0
  5  6  2  0  0  0  0
  6  7  1  0  0  0  0
  7  8  2  0  0  0  0
  8  9  1  0  0  0  0
  4  9  2  0  0  0  0
  1 10  1  0  0  0  0
  1 11  1  0  0  0  0
  1 12  1  0  0  0  0
  2 13  1  0  0  0  0
  2 14  1  0  0  0  0
  3 15  1  0  0  0  0
  3 16  1  0  0  0  0
  5 17  1  0  0  0  0
  6 18  1  0  0  0  0
  7 19  1  0  0  0  0
  8 20  1  0  0  0  0
  9 21  1  0  0  0  0
M  END
$$$$
